*Heading
** Job name: cut_cube Model name: Model-1
*Preprint, echo=NO, model=NO, history=NO, contact=NO
**
** PARTS
**
*Part, name=Cut_cube
*End Part
**  
**
** ASSEMBLY
**
*Assembly, name=Assembly
**  
*Instance, name=Cut_cube-1, part=Cut_cube
*Node
      1,           5.,           5.,           5.
      2,           5.,          10.,           5.
      3,          10.,          10.,           5.
      4,          10.,           5.,           5.
      5,           5.,          10.,           0.
      6,          10.,          10.,           0.
      7,          10.,           5.,           0.
      8,           5.,           5.,           0.
      9,           0.,           0.,          15.
     10,           0.,          15.,          15.
     11,           0.,          15.,           0.
     12,           0.,           0.,           0.
     13,          15.,          15.,          15.
     14,          15.,          15.,           0.
     15,          15.,           0.,           0.
     16,          15.,           0.,          15.
     17,           5.,          7.5,           5.
     18,          7.5,          10.,           5.
     19,          10.,          7.5,           5.
     20,          7.5,           5.,           5.
** ... 1226 like lines cut
*Element, type=C3D10M
  1,  136,  137,  138,  139,  200,  199,  198,  202,  201,  203
  2,  136,  140,  141,  142,  206,  205,  204,  208,  207,  209
  3,  136,  143,  140,  142,  211,  210,  206,  208,  212,  207
  4,  144,   42,  145,   82,  215,  214,  213,  217,  216,  218
  5,  144,   84,  146,  147,  221,  220,  219,  223,  222,  224
  6,  144,  137,  123,  147,  227,  226,  225,  223,  228,  229
  7,  144,  120,   42,   84,  231,  230,  215,  221,  232,  233
  8,  148,  149,   86,  145,  236,  235,  234,  238,  237,  239
  9,  148,   44,  129,   45,  242,  241,  240,  244,  243,  245
 10,  148,  138,   91,  150,  248,  247,  246,  250,  249,  251
 11,  151,   27,   95,   69,  254,  253,  252,  256,  255,  257
 12,  133,  129,  152,  153,  260,  259,  258,  262,  261,  263
 13,  148,   45,  150,   91,  244,  264,  250,  246,  265,  251
 14,  154,  155,  156,  112,  268,  267,  266,  270,  269,  271
 15,  157,  126,  121,  130,  274,  273,  272,  276,  275,  277
 16,  154,  117,  158,  159,  280,  279,  278,  282,  281,  283
 17,  154,  155,  159,  158,  268,  284,  282,  278,  285,  283
 18,  160,  154,  161,  162,  288,  287,  286,  290,  289,  291
 19,  154,  135,  157,  108,  294,  293,  292,  296,  295,  297
 20,  154,  161,  162,  158,  287,  291,  289,  278,  298,  299
** ... 700 like lines cut
*Nset, nset=_PickedSet2, internal, generate
    1,  1246,     1
*Elset, elset=_PickedSet2, internal, generate
   1,  720,    1
** Region: (Section-1:Picked)
*Elset, elset=_PickedSet2, internal, generate
   1,  720,    1
** Section: Section-1
*Solid Section, elset=_PickedSet2, material=Material-1
1.,
*End Instance
**  
*Nset, nset=_PickedSet13, internal, instance=Cut_cube-1
    9,   12,   15,   16,   38,   39,   40,   50,   51,   52,   56,   57,   58,   59,   60,   61
  104,  105,  106,  107,  108,  109,  110,  111,  112,  113,  114,  305,  308,  310,  312,  493
  495,  497,  574,  672,  674,  676,  766,  858,  878,  883,  884,  892,  898,  903,  906,  922
  937,  938,  956,  960,  961,  971,  973,  975,  977, 1003, 1004, 1005, 1010, 1013, 1042, 1043
 1082, 1092, 1094, 1106, 1107, 1109, 1114, 1117, 1121, 1123, 1125, 1127, 1131, 1133, 1134, 1135
 1136, 1139, 1145, 1153, 1180, 1194, 1211, 1220, 1245
*Elset, elset=_PickedSet13, internal, instance=Cut_cube-1
  23,  73, 123, 237, 283, 291, 293, 316, 324, 370, 413, 416, 429, 459, 466, 476
 487, 489, 496, 521, 522, 524, 528, 530, 532, 536, 549, 571, 580, 622, 625, 635
 636, 645, 666, 694
*Nset, nset=_PickedSet14, internal, instance=Cut_cube-1
 12,
*Nset, nset=_PickedSet15, internal, instance=Cut_cube-1
 15,
*Elset, elset=__PickedSurf16_S3, internal, instance=Cut_cube-1
 102, 104, 111, 133, 152, 172, 240, 384, 388, 442, 490, 565, 569, 584, 586, 587
 589, 591, 593, 596, 599, 605, 608, 617, 640, 661, 678, 699, 700, 714
*Elset, elset=__PickedSurf16_S4, internal, instance=Cut_cube-1
 275, 423, 588, 595
*Elset, elset=__PickedSurf16_S1, internal, instance=Cut_cube-1
 468,
*Elset, elset=__PickedSurf16_S2, internal, instance=Cut_cube-1
 603,
*Surface, type=ELEMENT, name=_PickedSurf16, internal
__PickedSurf16_S3, S3
__PickedSurf16_S4, S4
__PickedSurf16_S2, S2
__PickedSurf16_S1, S1
*End Assembly
** 
** MATERIALS
** 
*Material, name=Material-1
*Elastic
29000., 0.3
** 
** BOUNDARY CONDITIONS
** 
** Name: xyz_point Type: Displacement/Rotation
*Boundary
_PickedSet14, 1, 1
_PickedSet14, 2, 2
_PickedSet14, 3, 3
** Name: y_surface Type: Displacement/Rotation
*Boundary
_PickedSet13, 2, 2
** Name: z_point Type: Displacement/Rotation
*Boundary
_PickedSet15, 3, 3
** ----------------------------------------------------------------
** 
** STEP: Step-1
** 
*Step, name=Step-1
*Static
1., 1., 1e-05, 1.
** 
** LOADS
** 
** Name: Pull_y   Type: Surface traction
*Dsload
_PickedSurf16, TRVEC, 1., 0., 1., 0.
** 
** OUTPUT REQUESTS
** 
*Restart, write, frequency=0
** 
** FIELD OUTPUT: F-Output-1
** 
*Output, field, variable=PRESELECT
** 
** HISTORY OUTPUT: H-Output-1
** 
*Output, history, variable=PRESELECT
*End Step
