*Heading
** Job name: Local Model name: Local
*Preprint, echo=NO, model=NO, history=NO, contact=NO
**
** PARTS
**
*Part, name=small_cube
*End Part
**  
**
** ASSEMBLY
**
*Assembly, name=Assembly
**  
*Instance, name=small_cube-1, part=small_cube
*Node
      1,          10.,          10.,           5.
      2,          10.,           5.,           5.
      3,          10.,           5.,           0.
      4,          10.,          10.,           0.
      5,           5.,           5.,           5.
      6,           5.,           5.,           0.
      7,           5.,          10.,           0.
      8,           5.,          10.,           5.
      9,          10.,   8.33333302,           5.
     10,          10.,   6.66666651,           5.
     11,          10.,           5.,   3.33333325
     12,          10.,           5.,   1.66666663
     13,          10.,   6.66666651,           0.
     14,          10.,   8.33333302,           0.
     15,          10.,          10.,   1.66666663
     16,          10.,          10.,   3.33333325
     17,   8.33333302,           5.,           5.
     18,   6.66666651,           5.,           5.
     19,           5.,           5.,   3.33333325
     20,           5.,           5.,   1.66666663
** ... 425 like lines cut
*Element, type=C3D10M
  1,  62,  56,   1,  28,  81,  80,  79,  83,  82,  84
  2,  63,  50,  64,  65,  87,  86,  85,  89,  88,  90
  3,  49,  28,  65,  62,  93,  92,  91,  94,  83,  95
  4,  62,   9,  36,   1,  98,  97,  96,  79,  99, 100
  5,  62,  49,  16,  50,  94, 102, 101, 104, 103, 105
  6,  65,  62,   9,  63,  95,  98, 106,  89, 107, 108
  7,  66,  22,  13,   3, 111, 110, 109, 113, 112, 114
  8,  66,  67,  68,  35, 117, 116, 115, 119, 118, 120
  9,  66,  12,  22,   3, 122, 121, 111, 113, 123, 112
 10,  66,  68,  38,  41, 115, 125, 124, 127, 126, 128
 11,  66,  41,  38,  12, 127, 128, 124, 122, 129, 130
 12,  69,  54,  70,  39, 133, 132, 131, 135, 134, 136
 13,  69,  60,  70,  32, 138, 137, 131, 140, 139, 141
 14,  69,  65,  68,  67, 144, 143, 142, 146, 145, 116
 15,  71,  57,  58,  59, 149, 148, 147, 151, 150, 152
 16,  69,  64,  71,  65, 155, 154, 153, 144,  90, 156
 17,  69,  70,  40,  39, 131, 158, 157, 135, 136, 159
 18,  22,  72,  42,  38, 162, 161, 160, 164, 163, 165
 19,  64,  47,  43,  44, 168, 167, 166, 170, 169, 171
 20,  69,  32,  58,  60, 140, 173, 172, 138, 139, 174
** ... 211 like lines cut
*End Instance
**  
*End Assembly
** 
** MATERIALS
** 
*Material, name=Material-1
*Elastic
29000., 0.3
